13

Mg -2.611498 -1.50775 0.538459
Mg -2.6115 1.50775 -0.538459
Zn -1.328103 -0.766782 -2.1415
Mg 1.7763568394e-15 -3.015501 -0.538459
Zn 9.99999999252e-07 -1.533563 2.1415
Zn 1.7763568394e-15 1.533563 -2.1415
Zn -1.328104 0.766781 2.1415
Mg 1.7763568394e-15 3.015501 0.538459
Zn 1.328105 -0.766782 -2.1415
Mg 2.6115 -1.50775 0.538459
Mg 2.6115 1.50775 -0.538459
Zn 1.328105 0.766781 2.1415
Zn 1.7763568394e-15 4.4408920985e-16 8.881784197e-16
