13
0.809016708539 0.809016708539 0.809016708539 icosahedron
Si  0   0   0
Si  -0.499999823344 0   0.809016708539
Si  0.499999823344  0   -0.809016708539
Si  0.0 -0.809016708539 0.499999823344
Si  0.0 0.809016708539  -0.499999823344
Si  0.0 0.809016708539  0.499999823344
Si  0.0 -0.809016708539 -0.499999823344
Si  0.809016708539  0.499999823344  -0
Si  0.809016708539  -0.499999823344 0
Si  0.499999823344  -0  0.809016708539
Si  -0.809016708539 -0.499999823344 0.0
Si  -0.809016708539 0.499999823344  -0
Si  -0.499999823344 0   -0.809016708539
