91
14.48 14.48 14.48
Zr    0.000000    0.000000    0.000000
Zr    0.000000    0.000000    3.620000
Zr    0.000000    0.000000    7.240000
Zr    0.000000    0.000000   10.860000
Zr    0.000000    3.620000    0.000000
Zr    0.000000    3.620000    3.620000
Zr    0.000000    3.620000    7.240000
Zr    0.000000    3.620000   10.860000
Zr    0.000000    7.240000    0.000000
Zr    0.000000    7.240000    3.620000
Zr    0.000000    7.240000    7.240000
Zr    0.000000    7.240000   10.860000
Zr    0.000000   10.860000    0.000000
Zr    0.000000   10.860000    3.620000
Zr    0.000000   10.860000    7.240000
Zr    0.000000   10.860000   10.860000
Zr    3.620000    0.000000    0.000000
Zr    3.620000    0.000000    3.620000
Zr    3.620000    0.000000    7.240000
Zr    3.620000    0.000000   10.860000
Zr    3.620000    3.620000    0.000000
Zr    3.620000    3.620000    3.620000
Zr    3.620000    3.620000    7.240000
Zr    3.620000    3.620000   10.860000
Zr    3.620000    7.240000    0.000000
Zr    3.620000    7.240000    3.620000
Zr    3.620000    7.240000    7.240000
Zr    3.620000    7.240000   10.860000
Zr    3.620000   10.860000    0.000000
Zr    3.620000   10.860000    3.620000
Zr    3.620000   10.860000    7.240000
Zr    3.620000   10.860000   10.860000
Zr    7.240000    0.000000    0.000000
Zr    7.240000    0.000000    3.620000
Zr    7.240000    0.000000    7.240000
Zr    7.240000    0.000000   10.860000
Zr    7.240000    3.620000    0.000000
Zr    7.240000    3.620000    3.620000
Zr    7.240000    3.620000    7.240000
Zr    7.240000    3.620000   10.860000
Zr    7.240000    7.240000    0.000000
Zr    7.240000    7.240000    3.620000
Zr    7.240000    7.240000    7.240000
Zr    7.240000    7.240000   10.860000
Zr    7.240000   10.860000    0.000000
Zr    7.240000   10.860000    3.620000
Zr    7.240000   10.860000    7.240000
Zr    7.240000   10.860000   10.860000
Zr   10.860000    0.000000    0.000000
Zr   10.860000    0.000000    3.620000
Zr   10.860000    0.000000    7.240000
Zr   10.860000    0.000000   10.860000
Zr   10.860000    3.620000    0.000000
Zr   10.860000    3.620000    3.620000
Zr   10.860000    3.620000    7.240000
Zr   10.860000    3.620000   10.860000
Zr   10.860000    7.240000    0.000000
Zr   10.860000    7.240000    3.620000
Zr   10.860000    7.240000    7.240000
Zr   10.860000    7.240000   10.860000
Zr   10.860000   10.860000    0.000000
Zr   10.860000   10.860000    3.620000
Zr   10.860000   10.860000    7.240000
Zr   10.860000   10.860000   10.860000
Zr    1.810000    1.810000    1.810000
Zr    1.810000    1.810000    5.430000
Zr    1.810000    1.810000    9.049999
Zr    1.810000    5.430000    1.810000
Zr    1.810000    5.430000    5.430000
Zr    1.810000    5.430000    9.049999
Zr    1.810000    9.049999    1.810000
Zr    1.810000    9.049999    5.430000
Zr    1.810000    9.049999    9.049999
Zr    5.430000    1.810000    1.810000
Zr    5.430000    1.810000    5.430000
Zr    5.430000    1.810000    9.049999
Zr    5.430000    5.430000    1.810000
Zr    5.430000    5.430000    5.430000
Zr    5.430000    5.430000    9.049999
Zr    5.430000    9.049999    1.810000
Zr    5.430000    9.049999    5.430000
Zr    5.430000    9.049999    9.049999
Zr    9.049999    1.810000    1.810000
Zr    9.049999    1.810000    5.430000
Zr    9.049999    1.810000    9.049999
Zr    9.049999    5.430000    1.810000
Zr    9.049999    5.430000    5.430000
Zr    9.049999    5.430000    9.049999
Zr    9.049999    9.049999    1.810000
Zr    9.049999    9.049999    5.430000
Zr    9.049999    9.049999    9.049999
