12
13.0000000000
Si 0.410962781327260   0.816055403306217  -0.297515651880635
Si -0.489373445269645  -0.492434710326402  -0.730453419668800
Si 0.943855679278128  -0.019920207849515  -0.104740605793118
Si -0.299761384634647  -0.006645858111097   0.949742077892463
Si -0.466084763356688   0.534574724760326  -0.715916130404442
Si 0.505240741848044  -0.523078201687641   0.636733316658504
Si 0.359131980149500   0.004683238607572  -0.906164254950963
Si 0.528018980643655   0.481421161787950   0.650951976501172
Si -0.390314965522515  -0.854283805389133   0.348462869890886
Si 0.373747649339553  -0.825097660753989  -0.320746126698343
Si -0.351421199571216   0.860895471279821   0.372741183636917
Si -0.048696710962263   0.001098988972964   0.000390647759757
