13
6.0000000000
Si -0.000001075920835  -0.000000001839413   0.964702745612598
Si 0.266636804701410  -0.820625176140866   0.431428480036567
Si -0.698065948330167  -0.507174260210127   0.431427409636962
Si -0.698065957402787   0.507174239273984   0.431427405100488
Si 0.266636790021603   0.820625172461881   0.431428472696399
Si 0.862855886042900   0.000000003493263   0.431429137043432
Si -0.266636803867756  -0.820625184769574  -0.431428481927168
Si -0.862855899889054  -0.000000015800955  -0.431429146274201
Si -0.266636818547564   0.820625163833174  -0.431428489267336
Si 0.698065934484013   0.507174247902435  -0.431427418867731
Si 0.698065943556633  -0.507174251581676  -0.431427414331258
Si 0.000001062074681  -0.000000010468279  -0.964702754843368
Si -0.000000006923077  -0.000000006153846  -0.000000004615385
