14
6.0000000000
Si 0.043876422965345  -0.034198303635109   0.200283849823698
Si -0.720769560947522   0.524539261608600   0.504339857439051
Si -0.237574155896888  -0.838151760424290  -0.347121276621525
Si -0.828615071628070  -0.016376616693168  -0.323368159752163
Si -0.225222924761876   0.803108300492775  -0.311842735634196
Si 0.735246493157067   0.483065052169631  -0.328539379874451
Si 0.729929615136354  -0.531552569833996  -0.353690457329701
Si 0.016617079308662   0.012984539493454  -1.727415658258112
Si -0.677206881150891  -0.502810116438395  -1.198225743455014
Si 0.284831889970560  -0.821569814461224  -1.216972447177753
Si -0.671430319712762   0.511798115979193  -1.172798773172395
Si 0.295931672852089   0.818838452372736  -1.179637774389324
Si 0.886240670012062  -0.004778567066185  -1.205484907450485
Si 0.028898554035040  -0.009623398976298  -0.762911526434513
