14
7.0000000000
Si 0.007433962527402  -0.010284581217073  -0.056566447402550
Si -0.317256627962158   0.159007854848385   0.869728631388592
Si 0.630018064306099  -0.130498302502878   0.710678250445166
Si 0.008917920930667   0.939191588719871   1.390195776542855
Si 0.955975329755495   0.649165706550167   1.230798682792206
Si -0.585227032531664   0.769309079290884   0.120119320202467
Si 0.669904966035509   1.574293684784826   1.000519070501043
Si 0.337187013393124   0.783710005055614   0.470348871355150
Si -0.258122846936845   1.551716430657259   0.642069859330783
Si 1.276538915205476   1.080645664806915   0.383742477608233
Si 0.201153631101731   0.857061452223627  -0.504243495423674
Si 0.528257816696551   1.639468803590002   0.017707043704642
Si 0.950364366312650   0.300461930935428  -0.136724667546030
Si -0.401294985334045   1.633280503992262  -0.340359460910639
