15
3.0000000000
Si 0.296130868118326   0.604957911843617   0.526558277344054
Si -0.330873337451659  -0.625974806510285  -0.509795898677387
Si -0.167268466093941   0.902657260049224  -0.294102089075542
Si 0.944852306470098  -0.040658537597786   0.153480299548733
Si 0.595576729327970  -0.326136303377437  -0.679013000902417
Si -0.046506498083253   0.218487326324891  -0.937424813459178
Si 0.474060010379663  -0.850891583160893   0.017785404073689
Si -0.678290811073645   0.611160655181582   0.361297274750746
Si -0.810106444442782   0.238355676243762  -0.499038221039833
Si 0.433829961490395  -0.332155142465428   0.808879663375021
Si -0.377741597281477  -0.006245546075744   0.912788150976027
Si -0.289539935979867  -0.831023233242022   0.456171996493033
Si -0.931623163391090  -0.286399603539695   0.197760183936273
Si 0.644303092677931   0.576747663659540  -0.398010576676549
Si -0.017371234666666  -0.010508447333334   0.008381189333334
