16
3.0000000000
Si 0.000000000000000   0.000000000000000   0.000000000000000
Si 0.690632314818574  -0.365221251511264   0.401430505355945
Si -0.351740765819144   0.739713046108384   0.317189297637015
Si -0.338891548999429  -0.374491794597120  -0.718619802992960
Si 0.620965393238676  -0.520756439982608  -0.566466516013501
Si 0.607919645982686   0.610490308141601   0.485185419032102
Si 0.953188193436980   0.241754243380431  -0.248227232519710
Si 0.325520073840063   0.236102286635336  -0.931086460559500
Si 0.317686312969660   0.915397718037823  -0.299586430980078
Si -0.437350918739458   0.601077970897958  -0.651996203920578
Si 0.080230232328083   0.149949082103634   0.974036952966753
Si 0.093275979584074  -0.981297666020576  -0.077614982078850
Si -0.965040332394061   0.140536744859990  -0.163144669985927
Si -0.111074860060822  -0.687081921988629   0.737706183519815
Si -0.746576740528142  -0.013438447331237   0.686346985059447
Si -0.738742979657739  -0.692733878733724   0.054846955480025
