16
6.0000000000
Si 0.071419219579107  -0.054437021019349   0.197352631019299
Si -0.730255617943108  -0.532019216615355   0.502687002676232
Si -0.670021337805701   0.486808327765908   0.530269652401833
Si 0.285225131589796   0.847135554053927   0.522083752174520
Si -0.244926835236210  -0.835366035345464  -0.337090371486631
Si -0.827464717831097  -0.006248197915431  -0.323424465488651
Si -0.234551029033151   0.799005612042993  -0.312099190931739
Si 0.730268395513083   0.489075767653222  -0.318463117733697
Si 0.737367511317354  -0.536929918299385  -0.360745484732639
Si 0.018550289686046   0.011504290439670  -1.723376083416875
Si -0.678476970004968  -0.502523756096928  -1.191409314395741
Si 0.281135412527621  -0.823183624947618  -1.212418313138992
Si -0.669740439438456   0.510602097751950  -1.176229587374990
Si 0.295189530983158   0.819841833301307  -1.172811260987808
Si 0.886622571655508  -0.000853408964378  -1.200852872085151
Si 0.030209996978239  -0.010647053668140  -0.758785412992196
