17
3.0000000000
Si -0.000000000000587   0.992593257161082   0.599280586174569
Si -0.761693054542783   0.445902675685214   0.439763690079692
Si -0.518992211622567   0.992593257160654  -0.299640293087730
Si -0.000000000000196   0.000000000000180   0.828799069002876
Si -0.000000000000168   0.375627937760371  -0.000000000000081
Si 0.000000000000007   0.445902675685269  -0.879527380160034
Si -0.717761048389285  -0.000000000000412  -0.414399534501607
Si 0.000000000000304  -0.992593257160822   0.599280586175000
Si -0.518992211621677  -0.992593257161250  -0.299640293087299
Si -0.761693054542383  -0.445902675685707   0.439763690079886
Si 0.761693054542176   0.445902675685898   0.439763690080052
Si 0.518992211621818   0.992593257161120  -0.299640293087485
Si 0.000000000000168  -0.375627937760371   0.000000000000081
Si 0.717761048389481   0.000000000000232  -0.414399534501269
Si 0.761693054542575  -0.445902675685023   0.439763690080245
Si 0.000000000000408  -0.445902675685652  -0.879527380159841
Si 0.518992211622709  -0.992593257160784  -0.299640293087054
