17
6.0000000000
Si 0.077919111651577  -0.053032433510113   0.201473590223339
Si -0.736767457790700  -0.545861926143696   0.477013932269243
Si -0.662487665491695   0.482378890523719   0.538200140686311
Si 0.290318109608403   0.849604273065148   0.523742768932273
Si -0.207487606893213  -0.839448302698883  -0.326772539565557
Si -0.817373677609542   0.009287382108427  -0.318953488046280
Si -0.229071874032931   0.804764380970079  -0.310693940240950
Si 0.732686973539435   0.498596711669610  -0.321362256460073
Si 0.757361343904414  -0.521291864972940  -0.360291025373951
Si 0.009370900433749  -0.001086008809581  -1.718191172128965
Si -0.677398764020779  -0.518566972059344  -1.160469853723153
Si 0.291777864193208  -0.823079197530881  -1.205793363583467
Si -0.671174578301305   0.502245937255547  -1.174585308240283
Si 0.289279081824309   0.818837349171546  -1.178637374692849
Si 0.886692632410652   0.006267606627163  -1.207018226749298
Si -1.188760923094414  -0.898105470071390  -0.368284083420390
Si 0.035667642206055  -0.009745105457481  -0.754690236379177
