9
6.0000000000
Si -0.360992740419039   0.245221170650534   0.019940295364670
Si -0.158688741085414  -0.152830899005342  -0.862646221408312
Si -0.678716869125317  -0.367478246310150   0.728447261023474
Si 0.285551381476743  -0.137636954662848   0.701742749809020
Si -0.100956959765390  -0.705684519812538  -0.023352864037224
Si 0.398500280195598   0.787097803461777   0.341272838809939
Si 0.588930132919941  -0.012414027835070  -0.226483875064096
Si 0.153127292509711   0.779127686880150  -0.635006833464876
Si -0.366900835530192   0.564480339575341   0.956086648966909
