17

Ni -2.412001 -1.3925685 0.7429505
Ni -1.188801 -2.0987825 -1.2330835
Ni -1.206 -0.6962845 2.7234165
Ni -2.411999 0.0198585 -1.2330835
Mg -2.411999 1.3925685 1.9957375
Ni -1.223196 2.0789245 -1.2330835
Ni 1.188803 -2.0987825 -1.2330835
Mg 9.99999999252e-07 -2.7851375 1.9957375
Ni 1.206001 -0.6962845 2.7234165
Mg 9.99999999252e-07 5.0000000007e-07 -2.7234165
Ni 9.99999999252e-07 1.3925685 2.7234165
Ni 1.223199 2.0789245 -1.2330835
Ni 9.99999999252e-07 2.7851375 0.7429505
Ni 2.412001 -1.3925685 0.7429505
Ni 2.412001 0.0198585 -1.2330835
Mg 2.412001 1.3925685 1.9957375
Mg 9.99999999252e-07 5.0000000007e-07 0.2572505
