17

Mg -2.6115 -1.5077505 -1.3399795
Zn -2.611499 -0.0258125 1.3399795
Zn -2.6115 1.5077505 -0.8015205
Zn -1.00000000103e-06 -3.0155005 -0.8015205
Zn -1.328103 -2.2487185 1.3399795
Zn 1.328105 -2.2487185 1.3399795
Zn -1.283395 0.7409685 -2.9430205
Zn 0.0 -1.4819375 -2.9430205
Zn 1.283395 0.7409685 -2.9430205
Mg 0.0 5.0000000007e-07 2.9430205
Mg 0.0 3.0155005 -1.3399795
Zn 1.283395 2.2745315 1.3399795
Zn -1.283395 2.2745315 1.3399795
Mg 2.6115 -1.5077505 -1.3399795
Zn 2.6115 -0.0258125 1.3399795
Zn 2.6115 1.5077505 -0.8015205
Mg 0.0 5.0000000007e-07 -0.2630615
