17

Zn -1.3281035 -2.24872 -1.3399795
Zn -2.6114995 -0.025812 -1.3399795
Mg -2.6115005 -1.507749 1.3399795
Zn -1.2833965 2.274531 -1.3399795
Zn -2.6114995 1.50775 0.8015205
Zn -1.2833965 0.740969 2.9430205
Zn 5.0000000007e-07 -3.015501 0.8015205
Mg 1.5000000011e-06 0.0 -2.9430205
Zn 1.3281045 -2.24872 -1.3399795
Zn 5.0000000007e-07 -1.481939 2.9430205
Zn 1.2833975 2.274531 -1.3399795
Mg -4.99999999182e-07 3.015501 1.3399795
Zn 1.2833975 0.740969 2.9430205
Zn 2.6115005 -0.025812 -1.3399795
Mg 2.6114995 -1.507749 1.3399795
Zn 2.6115005 1.50775 0.8015205
Mg 1.5000000011e-06 0.0 0.2630615
